<?xml version="1.0" encoding="UTF-8"?>

<!-- generated on 2025-11-08 23:54:03 by Eclipse SUMO netconvert Version 1.24.0
<netconvertConfiguration xmlns:xsi="http://www.w3.org/2001/XMLSchema-instance" xsi:noNamespaceSchemaLocation="http://sumo.dlr.de/xsd/netconvertConfiguration.xsd">

    <input>
        <node-files value="hello.nod.xml"/>
        <edge-files value="hello.edg.xml"/>
    </input>

    <output>
        <output-file value="hello.net.xml"/>
    </output>

</netconvertConfiguration>
-->

<net version="1.20" junctionCornerDetail="5" limitTurnSpeed="5.50" xmlns:xsi="http://www.w3.org/2001/XMLSchema-instance" xsi:noNamespaceSchemaLocation="http://sumo.dlr.de/xsd/net_file.xsd">

    <location netOffset="250.00,0.00" convBoundary="0.00,0.00,501.00,0.00" origBoundary="-250.00,0.00,251.00,0.00" projParameter="!"/>

    <edge id=":1_0" function="internal">
        <lane id=":1_0_0" index="0" speed="3.65" length="4.67" shape="0.00,1.60 -1.20,0.80 -1.60,0.00 -1.20,-0.80 0.00,-1.60"/>
    </edge>
    <edge id=":2_0" function="internal">
        <lane id=":2_0_0" index="0" speed="13.89" length="0.10" shape="500.00,1.60 500.00,1.60"/>
    </edge>
    <edge id=":2_1" function="internal">
        <lane id=":2_1_0" index="0" speed="13.89" length="0.10" shape="500.00,-1.60 500.00,-1.60"/>
    </edge>
    <edge id=":3_0" function="internal">
        <lane id=":3_0_0" index="0" speed="3.65" length="4.67" shape="501.00,-1.60 502.20,-0.80 502.60,0.00 502.20,0.80 501.00,1.60"/>
    </edge>

    <edge id="1to2" from="1" to="2" priority="-1">
        <lane id="1to2_0" index="0" speed="13.89" length="500.00" shape="0.00,-1.60 500.00,-1.60"/>
    </edge>
    <edge id="2to1" from="2" to="1" priority="-1">
        <lane id="2to1_0" index="0" speed="13.89" length="500.00" shape="500.00,1.60 0.00,1.60"/>
    </edge>
    <edge id="3to2" from="3" to="2" priority="-1">
        <lane id="3to2_0" index="0" speed="13.89" length="1.00" shape="501.00,1.60 500.00,1.60"/>
    </edge>
    <edge id="out" from="2" to="3" priority="-1">
        <lane id="out_0" index="0" speed="13.89" length="1.00" shape="500.00,-1.60 501.00,-1.60"/>
    </edge>

    <junction id="1" type="priority" x="0.00" y="0.00" incLanes="2to1_0" intLanes=":1_0_0" shape="0.00,0.00 0.00,3.20 0.00,0.00">
        <request index="0" response="0" foes="0" cont="0"/>
    </junction>
    <junction id="2" type="priority" x="500.00" y="0.00" incLanes="3to2_0 1to2_0" intLanes=":2_0_0 :2_1_0" shape="500.00,3.20 500.00,-3.20 500.00,3.20">
        <request index="0" response="00" foes="00" cont="0"/>
        <request index="1" response="00" foes="00" cont="0"/>
    </junction>
    <junction id="3" type="priority" x="501.00" y="0.00" incLanes="out_0" intLanes=":3_0_0" shape="501.00,0.00 501.00,-3.20 501.00,0.00">
        <request index="0" response="0" foes="0" cont="0"/>
    </junction>

    <connection from="1to2" to="out" fromLane="0" toLane="0" via=":2_1_0" dir="s" state="M"/>
    <connection from="2to1" to="1to2" fromLane="0" toLane="0" via=":1_0_0" dir="t" state="M"/>
    <connection from="3to2" to="2to1" fromLane="0" toLane="0" via=":2_0_0" dir="s" state="M"/>
    <connection from="out" to="3to2" fromLane="0" toLane="0" via=":3_0_0" dir="t" state="M"/>

    <connection from=":1_0" to="1to2" fromLane="0" toLane="0" dir="t" state="M"/>
    <connection from=":2_0" to="2to1" fromLane="0" toLane="0" dir="s" state="M"/>
    <connection from=":2_1" to="out" fromLane="0" toLane="0" dir="s" state="M"/>
    <connection from=":3_0" to="3to2" fromLane="0" toLane="0" dir="t" state="M"/>

</net>
